
#
# CO2 vibrational splitting reaction set
# 25 CO2 levels
# 63 CO levels
# 4 O2 levels
# INPUT DATA FILE
# ZDPLASKIN
#
#

ELEMENTS
E C O
END

SPECIES
# ------------------------------------------------------
# CO2 species
# ------------------------------------------------------
#  CO2(Va) = (010)
#  CO2(Vb) = (100), (020)
#  CO2(Vc) = (110), (030)
#  CO2(Vd) = (n00), (0n0) n=sum 4-8
#  CO2(Vn) = (00n), n=1...21
#  CO2(E1) = (1Πg)
#  CO2(E2) = (1Δu)
#
CO2
CO2(Va) CO2(Vb) CO2(Vc) CO2(Vd)
CO2(V1) CO2(V2) CO2(V3) CO2(V4) CO2(V5) CO2(V6) CO2(V7) CO2(V8) CO2(V9) CO2(V10) CO2(V11) CO2(V12) CO2(V13) CO2(V14) CO2(V15) CO2(V16) CO2(V17) CO2(V18) CO2(V19) CO2(V20) CO2(V21)
CO2(E1) CO2(E2)
CO2^+
# ------------------------------------------------------
# CO species
# ------------------------------------------------------
# CO(E1) CO(A3Π)
# CO(E2) CO(A1Π)
# CO(E3) CO(A3Σ),CO(D3Δ), CO(E3Σ), CO(B3Σ)
# CO(E4) CO(C1Σ),CO(E1Π), CO(B1Σ), CO(I1Σ),CO(D1Δ)
#
CO CO(V1) CO(V2) CO(V3) CO(V4) CO(V5) CO(V6) CO(V7) CO(V8) CO(V9) CO(V10) CO(V11) CO(V12) CO(V13) CO(V14) CO(V15) CO(V16) CO(V17) CO(V18) CO(V19) CO(V20)
CO(V21) CO(V22) CO(V23) CO(V24) CO(V25) CO(V26) CO(V27) CO(V28) CO(V29) CO(V30) CO(V31) CO(V32) CO(V33) CO(V34) CO(V35) CO(V36) CO(V37) CO(V38) CO(V39) CO(V40)
CO(V41) CO(V42) CO(V43) CO(V44) CO(V45) CO(V46) CO(V47) CO(V48) CO(V49) CO(V50) CO(V51) CO(V52) CO(V53) CO(V54) CO(V55) CO(V56) CO(V57) CO(V58) CO(V59) CO(V60) CO(V61) CO(V62) CO(V63)
CO(E1) CO(E2) CO(E3) CO(E4)
CO^+ CO3^- CO4^- CO4^+
# ------------------------------------------------------
# O3,O2 and O species
# ------------------------------------------------------
# O2e1 O2(a1Δ) and O2(b1Σ)
# O2e2 O2(B3Σ) and higher triplets
#
O3
O2 O2(V1) O2(V2) O2(V3) O2(V4) O2(E1) O2(E2)
O
O2^+ O2^- O^+ O^- O3^- O4^- O4^+
# ------------------------------------------------------
# electrons and others
# ------------------------------------------------------
C2O C2O2^+ C2O3^+ C2O4^+
C2 C2^+
C C^+
E
C(w)
END

BOLSIG
CO2 CO2(Va) CO2(Vb) CO2(Vc) CO2(Vd)
CO2(V1) CO2(V2) CO2(V3) CO2(V4) CO2(V5) CO2(V6) CO2(V7) CO2(V8) CO2(V9) CO2(V10)
CO2(V11) CO2(V12) CO2(V13) CO2(V14) CO2(V15) CO2(V16) CO2(V17) CO2(V18) CO2(V19) CO2(V20) CO2(V21)
CO2(E1) CO2(E2)
CO CO(V1) CO(V2) CO(V3) CO(V4) CO(V5) CO(V6) CO(V7) CO(V8) CO(V9) CO(V10)
CO(E1) CO(E2) CO(E3) CO(E4)
O2 O2(V1) O2(V2) O2(V3) O2(V4) O2(E1) O2(E2)
O3 O C C2
END


REACTIONS
$ double precision::wallheat, radius, walltemp
#$ wallheat = 8d0*(0.071*Tgas-2.33)*1d-5/radius**2*(Tgas-walltemp)


# ------------------------------------------------------
# electron impact reactions: vibrational excitation
# ------------------------------------------------------
# symmetric levels
E + CO2 => E + @B     ! BOLSIG+ CO2 -> @B
  @B = CO2(Va) CO2(Vb) CO2(Vc) CO2(Vd)

# asymmetric levels from CO2
E + CO2 => E + @B     ! BOLSIG+ CO2 -> @B
 @B = CO2(V1) CO2(V2) CO2(V3) CO2(V4) CO2(V5) CO2(V6) CO2(V7) CO2(V8) CO2(V9) CO2(V10) CO2(V11) CO2(V12) CO2(V13) CO2(V14) CO2(V15) CO2(V16) CO2(V17) CO2(V18) CO2(V19) CO2(V20) CO2(V21)

# asymmetric levels from CO2(Va)
E + CO2(Va) => E + @B + 0.0828_eV     ! BOLSIG+ CO2(Va) -> @B
 @B = CO2(V1) CO2(V2) CO2(V3) CO2(V4) CO2(V5) CO2(V6) CO2(V7) CO2(V8) CO2(V9) CO2(V10) CO2(V11) CO2(V12) CO2(V13) CO2(V14) CO2(V15) CO2(V16) CO2(V17) CO2(V18) CO2(V19) CO2(V20) CO2(V21)

E + CO2(Vb) => E + @B + 0.1657_eV    ! BOLSIG+ CO2(Vb) -> @B
 @B = CO2(V1) CO2(V2) CO2(V3) CO2(V4) CO2(V5) CO2(V6) CO2(V7) CO2(V8) CO2(V9) CO2(V10) CO2(V11) CO2(V12) CO2(V13) CO2(V14) CO2(V15) CO2(V16) CO2(V17) CO2(V18) CO2(V19) CO2(V20) CO2(V21)

E + CO2(Vc) => E + @B + 0.2486_eV    ! BOLSIG+ CO2(Vc) -> @B
 @B = CO2(V1) CO2(V2) CO2(V3) CO2(V4) CO2(V5) CO2(V6) CO2(V7) CO2(V8) CO2(V9) CO2(V10) CO2(V11) CO2(V12) CO2(V13) CO2(V14) CO2(V15) CO2(V16) CO2(V17) CO2(V18) CO2(V19) CO2(V20) CO2(V21)

E + CO2(Vd) => E + @B + 0.3314_eV    ! BOLSIG+ CO2(Vd) -> @B
 @B = CO2(V1) CO2(V2) CO2(V3) CO2(V4) CO2(V5) CO2(V6) CO2(V7) CO2(V8) CO2(V9) CO2(V10) CO2(V11) CO2(V12) CO2(V13) CO2(V14) CO2(V15) CO2(V16) CO2(V17) CO2(V18) CO2(V19) CO2(V20) CO2(V21)

# asymmetric levels from CO2(V1)
E + CO2(V1) => E + @B     ! BOLSIG+ CO2(V1) -> @B
 @B = CO2(V2) CO2(V3) CO2(V4) CO2(V5) CO2(V6) CO2(V7) CO2(V8) CO2(V9) CO2(V10) CO2(V11) CO2(V12) CO2(V13) CO2(V14) CO2(V15) CO2(V16) CO2(V17) CO2(V18) CO2(V19) CO2(V20) CO2(V21)

# asymmetric levels from CO2(V2)
E + CO2(V2) => E + @B     ! BOLSIG+ CO2(V2) -> @B
 @B = CO2(V3) CO2(V4) CO2(V5) CO2(V6) CO2(V7) CO2(V8) CO2(V9) CO2(V10) CO2(V11) CO2(V12) CO2(V13) CO2(V14) CO2(V15) CO2(V16) CO2(V17) CO2(V18) CO2(V19) CO2(V20) CO2(V21)

# asymmetric levels from CO2(V3)
E + CO2(V3) => E + @B     ! BOLSIG+ CO2(V3) -> @B
 @B = CO2(V4) CO2(V5) CO2(V6) CO2(V7) CO2(V8) CO2(V9) CO2(V10) CO2(V11) CO2(V12) CO2(V13) CO2(V14) CO2(V15) CO2(V16) CO2(V17) CO2(V18) CO2(V19) CO2(V20) CO2(V21)


# asymmetric levels from CO2(V4)
E + CO2(V4) => E + @B     ! BOLSIG+ CO2(V4) -> @B
 @B = CO2(V5) CO2(V6) CO2(V7) CO2(V8) CO2(V9) CO2(V10) CO2(V11) CO2(V12) CO2(V13) CO2(V14) CO2(V15) CO2(V16) CO2(V17) CO2(V18) CO2(V19) CO2(V20) CO2(V21)


# asymmetric levels from CO2(V5)
E + CO2(V5) => E + @B     ! BOLSIG+ CO2(V5) -> @B
 @B = CO2(V6) CO2(V7) CO2(V8) CO2(V9) CO2(V10) CO2(V11) CO2(V12) CO2(V13) CO2(V14) CO2(V15) CO2(V16) CO2(V17) CO2(V18) CO2(V19) CO2(V20) CO2(V21)


# CO molecule
E + CO => E + @B       ! BOLSIG+ CO -> @B
  @B = CO(V1) CO(V2) CO(V3) CO(V4) CO(V5) CO(V6) CO(V7) CO(V8) CO(V9) CO(V10)

E + CO(V1) => E + @B       ! BOLSIG+ CO(V1) -> @B
  @B = CO(V2) CO(V3) CO(V4) CO(V5) CO(V6) CO(V7) CO(V8) CO(V9) CO(V10) CO(V11)

E + CO(V2) => E + @B       ! BOLSIG+ CO(V2) -> @B
  @B = CO(V3) CO(V4) CO(V5) CO(V6) CO(V7) CO(V8) CO(V9) CO(V10) CO(V11) CO(V12)

E + CO(V3) => E + @B       ! BOLSIG+ CO(V3) -> @B
  @B = CO(V4) CO(V5) CO(V6) CO(V7) CO(V8) CO(V9) CO(V10) CO(V11) CO(V12) CO(V13)

E + CO(V4) => E + @B       ! BOLSIG+ CO(V4) -> @B
  @B = CO(V5) CO(V6) CO(V7) CO(V8) CO(V9) CO(V10) CO(V11) CO(V12) CO(V13) CO(V14)

E + CO(V5) => E + @B       ! BOLSIG+ CO(V5) -> @B
  @B = CO(V6) CO(V7) CO(V8) CO(V9) CO(V10) CO(V11) CO(V12) CO(V13) CO(V14) CO(V15)


# O2 molecule
E + O2 => E + @B ! BOLSIG+ O2 -> @R
  @B = O2(V1)    O2(V1) O2(V2)    O2(V2) O2(V3)    O2(V3) O2(V4)    O2(V4)
  @R = O2(V1)res O2(V1) O2(V2)res O2(V2) O2(V3)res O2(V3) O2(V4)res O2(V4)

E + @B => E + O2 ! BOLSIG+ @B -> O2
  @B = O2(V1) O2(V2) O2(V3) O2(V4)

# ------------------------------------------------------
# electron impact reactions: electronic excitation
# ------------------------------------------------------
E + @A => E + CO + O  ! BOLSIG+ @A -> CO + O
  @A = CO2 CO2(Va) CO2(Vb) CO2(Vc) CO2(Vd) CO2(V1) CO2(V2) CO2(V3) CO2(V4) CO2(V5) CO2(V6) CO2(V7) CO2(V8) CO2(V9) CO2(V10) CO2(V11) CO2(V12) CO2(V13) CO2(V14) CO2(V15) CO2(V16) CO2(V17) CO2(V18) CO2(V19) CO2(V20) CO2(V21)

E + @A => E + CO2(E1) ! BOLSIG+ @A -> CO2(E1)
  @A = CO2 CO2(Va) CO2(Vb) CO2(Vc) CO2(Vd) CO2(V1) CO2(V2) CO2(V3) CO2(V4) CO2(V5) CO2(V6) CO2(V7) CO2(V8) CO2(V9) CO2(V10) CO2(V11) CO2(V12) CO2(V13) CO2(V14) CO2(V15) CO2(V16) CO2(V17) CO2(V18) CO2(V19) CO2(V20) CO2(V21)


E + @A => E + CO2(E2) ! BOLSIG+ @A -> CO2(E2)
  @A = CO2 CO2(Va) CO2(Vb) CO2(Vc) CO2(Vd) CO2(V1) CO2(V2) CO2(V3) CO2(V4) CO2(V5) CO2(V6) CO2(V7) CO2(V8) CO2(V9) CO2(V10) CO2(V11) CO2(V12) CO2(V13) CO2(V14) CO2(V15) CO2(V16) CO2(V17) CO2(V18) CO2(V19) CO2(V20) CO2(V21)


E + CO2(E1) => E + CO2 ! BOLSIG+ CO2(E1) -> CO2
E + CO2(E2) => E + CO2 ! BOLSIG+ CO2(E2) -> CO2

E + @A => E + C + O     ! BOLSIG+ @A -> C+O
  @A = CO CO(V1) CO(V2) CO(V3) CO(V4) CO(V5) CO(V6) CO(V7) CO(V8) CO(V9) CO(V10)

E + @A => CO(E1) + E    ! BOLSIG+ @A -> CO(E1)
  @A = CO CO(V1) CO(V2) CO(V3) CO(V4) CO(V5) CO(V6) CO(V7) CO(V8) CO(V9) CO(V10)

E + @A => CO(E2) + E    ! BOLSIG+ @A -> CO(E2)
  @A = CO CO(V1) CO(V2) CO(V3) CO(V4) CO(V5) CO(V6) CO(V7) CO(V8) CO(V9) CO(V10)

E + @A => CO(E3) + E    ! BOLSIG+ @A -> CO(E3)
  @A = CO CO(V1) CO(V2) CO(V3) CO(V4) CO(V5) CO(V6) CO(V7) CO(V8) CO(V9) CO(V10)

E + @A => CO(E4) + E    ! BOLSIG+ @A -> CO(E4)
  @A = CO CO(V1) CO(V2) CO(V3) CO(V4) CO(V5) CO(V6) CO(V7) CO(V8) CO(V9) CO(V10)

E + CO(E1) => CO + E    ! BOLSIG+ CO(E1) -> CO
E + CO(E2) => CO + E    ! BOLSIG+ CO(E2) -> CO
E + CO(E3) => CO + E    ! BOLSIG+ CO(E3) -> CO
E + CO(E4) => CO + E    ! BOLSIG+ CO(E4) -> CO

E + C2 => C + C + E     ! BOLSIG+ C2 -> C + C
E + O2 => O + O + E     ! BOLSIG+ O2 -> O+O

E + @A => E + O2(E1)    ! BOLSIG+ O2 -> O2(E1)
  @A = O2 O2(V1) O2(V2) O2(V3) O2(V4)
E + @A => E + O2(E2)    ! BOLSIG+ O2 -> O2(E2)
  @A = O2 O2(V1) O2(V2) O2(V3) O2(V4)
E + O2(E1) => E + O2    ! BOLSIG+ O2(E1) -> O2
E + O2(E2) => E + O2    ! BOLSIG+ O2(E2) -> O2

E + O3 => O + O2 + E    ! BOLSIG+ O3 -> O2 + O

# ------------------------------------------------------
# electron impact reactions: Ionization
# ------------------------------------------------------
E + @A => E + E + CO2^+      ! BOLSIG+ @A -> CO2^+
  @A = CO2 CO2(Va) CO2(Vb) CO2(Vc) CO2(Vd) CO2(V1) CO2(V2) CO2(V3) CO2(V4) CO2(V5) CO2(V6) CO2(V7) CO2(V8) CO2(V9) CO2(V10) CO2(V11) CO2(V12) CO2(V13) CO2(V14) CO2(V15) CO2(V16) CO2(V17) CO2(V18) CO2(V19) CO2(V20) CO2(V21)

E + @A => E + E + O + CO^+   ! BOLSIG+ @A -> CO^+
  @A = CO2 CO2(Va) CO2(Vb) CO2(Vc) CO2(Vd) CO2(V1) CO2(V2) CO2(V3) CO2(V4) CO2(V5) CO2(V6) CO2(V7) CO2(V8) CO2(V9) CO2(V10) CO2(V11) CO2(V12) CO2(V13) CO2(V14) CO2(V15) CO2(V16) CO2(V17) CO2(V18) CO2(V19) CO2(V20) CO2(V21)

E + @A => E + E + C^+ + O2   ! BOLSIG+ @A -> C^+
  @A = CO2 CO2(Va) CO2(Vb) CO2(Vc) CO2(Vd) CO2(V1) CO2(V2) CO2(V3) CO2(V4) CO2(V5) CO2(V6) CO2(V7) CO2(V8) CO2(V9) CO2(V10) CO2(V11) CO2(V12) CO2(V13) CO2(V14) CO2(V15) CO2(V16) CO2(V17) CO2(V18) CO2(V19) CO2(V20) CO2(V21)

E + @A => E + E + CO + O^+   ! BOLSIG+ @A -> O^+
  @A = CO2 CO2(Va) CO2(Vb) CO2(Vc) CO2(Vd) CO2(V1) CO2(V2) CO2(V3) CO2(V4) CO2(V5) CO2(V6) CO2(V7) CO2(V8) CO2(V9) CO2(V10) CO2(V11) CO2(V12) CO2(V13) CO2(V14) CO2(V15) CO2(V16) CO2(V17) CO2(V18) CO2(V19) CO2(V20) CO2(V21)

E + @A => E + E + CO^+        ! BOLSIG+ @A -> CO^+
  @A = CO CO(V1) CO(V2) CO(V3) CO(V4) CO(V5) CO(V6) CO(V7) CO(V8) CO(V9) CO(V10)
E + @A => E + E + C^+ + O     ! BOLSIG+ @A -> C^+
  @A = CO CO(V1) CO(V2) CO(V3) CO(V4) CO(V5) CO(V6) CO(V7) CO(V8) CO(V9) CO(V10)
E + @A => E + E + C + O^+     ! BOLSIG+ @A -> O^+
  @A = CO CO(V1) CO(V2) CO(V3) CO(V4) CO(V5) CO(V6) CO(V7) CO(V8) CO(V9) CO(V10)

E + C => E + E + C^+          ! BOLSIG+ C -> C^+

E + C2 => E + E + C2^+        ! BOLSIG+ C2 -> C2^+

E + @A => O2^+ + E + E        ! BOLSIG+ O2 -> O2^+
  @A = O2 O2(V1) O2(V2) O2(V3) O2(V4)
E + @A => O + O^+ + E + E     ! BOLSIG+ O2 -> O^+
  @A = O2 O2(V1) O2(V2) O2(V3) O2(V4)

E + O3 => O + O2^+ + E + E    ! BOLSIG+ O3 -> O2^+
E + O3 => O^+ + O^- + O + E   ! BOLSIG+ O3 -> O^+

E + O => O^+ + E + E          ! BOLSIG+ O -> O^+

# ------------------------------------------------------
# electron impact reactions: Attachment
# ------------------------------------------------------
E + @A => CO + O^-           ! BOLSIG+ @A -> CO+O^-
  @A = CO2 CO2(Va) CO2(Vb) CO2(Vc) CO2(Vd)

E + CO => C + O^-             ! BOLSIG+ CO -> O^-

E + O2 + ANY_NEUTRAL => O2^- + ANY_NEUTRAL   ! BOLSIG+ O2 -> O2^-
E + O2 => O + O^-                            ! BOLSIG+ O2 -> O^-

E + O3 => O^- + O2            ! BOLSIG+ O3 -> O^-
E + O3 => O + O2^-            ! BOLSIG+ O3 -> O2^-
E + O3 + ANY_NEUTRAL => O3^- + ANY_NEUTRAL    ! 5.39E-29*Te**(-0.5)

E + O + ANY_NEUTRAL => O^- + ANY_NEUTRAL     ! 1.00E-31

# ------------------------------------------------------
# heavy particle reactions: neutral - neutral
# ------------------------------------------------------
@A + ANY_NEUTRAL + @H_eV => CO + O + ANY_NEUTRAL   ! 4.39E-7*exp(-max(0.0,6.5e4-@E)/Tgas)
  @A = CO2 CO2(Va) CO2(Vb) CO2(Vc) CO2(V1) CO2(Vd) CO2(V2) CO2(V3) CO2(V4) CO2(V5) CO2(V6) CO2(V7) CO2(V8) CO2(V9) CO2(V10) CO2(V11) CO2(V12) CO2(V13) CO2(V14) CO2(V15) CO2(V16)
  @E = 0.00e+00 9.60e+02 1.92e+03 2.88e+03 3.38e+03 3.85e+03 6.72e+03 1.00e+04 1.33e+04 1.65e+04 1.97e+04 2.29e+04 2.60e+04 2.91e+04 3.22e+04 3.52e+04 3.82e+04 4.11e+04 4.41e+04 4.69e+04 4.98e+04
  @H = 5.520 5.437 5.354 5.271 5.229 5.189 4.941 4.655 4.373 4.095 3.819 3.546 3.276 3.010 2.747 2.486 2.229 1.975 1.724 1.476 1.231

@A + ANY_NEUTRAL + @H_eV => CO + O + ANY_NEUTRAL   ! 4.39E-7*exp(-max(0.0,6.5e4-@E)/Tgas)
  @A = CO2(V17) CO2(V18) CO2(V19) CO2(V20) CO2(V21)
  @E = 5.26e+04 5.53e+04 5.81e+04 6.08e+04 6.34e+04
  @H = 0.989 0.750 0.515 0.282 0.053

@A + O + @H_eV => CO + O2           ! 7.77E-12*exp(-max(0.0,1.66e4-0.5*@E)/Tgas)
  @A = CO2 CO2(Va) CO2(Vb) CO2(Vc) CO2(V1) CO2(Vd)
  @E = 0.00e+00 9.60e+02 1.92e+03 2.88e+03 3.38e+03 3.85e+03
  @H = 0.350 0.267 0.184 0.101 0.059 0.019

@A + O => CO + O2 + @H_eV           ! 7.77E-12*exp(-max(0.0,1.66e4-0.5*@E)/Tgas)
  @A = CO2(V2) CO2(V3) CO2(V4) CO2(V5) CO2(V6) CO2(V7) CO2(V8) CO2(V9) CO2(V10) CO2(V11) CO2(V12) CO2(V13) CO2(V14) CO2(V15) CO2(V16) CO2(V17) CO2(V18) CO2(V19) CO2(V20) CO2(V21)
  @E = 6.72e+03 1.00e+04 1.33e+04 1.65e+04 1.97e+04 2.29e+04 2.60e+04 2.91e+04 3.22e+04 3.52e+04 3.82e+04 4.11e+04 4.41e+04 4.69e+04 4.98e+04 5.26e+04 5.53e+04 5.81e+04 6.08e+04 6.34e+04
  @H = 0.229 0.515 0.797 1.075 1.351 1.624 1.894 2.160 2.423 2.684 2.941 3.195 3.446 3.694 3.939 4.181 4.420 4.655 4.888 5.117

@A + C => 2CO + @H_eV               ! 1E-15
  @A = CO2 CO2(Va) CO2(Vb) CO2(Vc) CO2(V1) CO2(Vd) CO2(V2) CO2(V3) CO2(V4) CO2(V5) CO2(V6) CO2(V7) CO2(V8) CO2(V9) CO2(V10) CO2(V11) CO2(V12) CO2(V13) CO2(V14) CO2(V15) CO2(V16)
  @H = 5.640 5.723 5.806 5.889 5.931 5.971 6.219 6.505 6.787 7.065 7.341 7.614 7.884 8.150 8.413 8.674 8.931 9.185 9.436 9.684 9.929

@A + C => 2CO + @H_eV               ! 1E-15
  @A = CO2(V17) CO2(V18) CO2(V19) CO2(V20) CO2(V21)
  @H = 10.171 10.410 10.645 10.878 11.107

@A + O + ANY_NEUTRAL => CO2 + ANY_NEUTRAL + @H_eV  ! 8.20E-34*exp(-1510.0/Tgas)
  @A = CO CO(V1) CO(V2) CO(V3) CO(V4) CO(V5) CO(V6) CO(V7) CO(V8) CO(V9) CO(V10) CO(V11) CO(V12) CO(V13) CO(V14) CO(V15) CO(V16) CO(V17) CO(V18) CO(V19) CO(V20)
  @H = 5.520 5.786 6.048 6.307 6.563 6.816 7.065 7.312 7.555 7.795 8.032 8.265 8.496 8.724 8.948 9.170 9.388 9.604 9.817 10.027 10.233

@A + O + ANY_NEUTRAL => CO2 + ANY_NEUTRAL + @H_eV  ! 8.20E-34*exp(-1510.0/Tgas)
  @A = CO(V21) CO(V22) CO(V23) CO(V24) CO(V25) CO(V26) CO(V27) CO(V28) CO(V29) CO(V30) CO(V31) CO(V32) CO(V33) CO(V34) CO(V35) CO(V36) CO(V37) CO(V38) CO(V39) CO(V40) CO(V41)
  @H = 10.437 10.639 10.837 11.033 11.225 11.415 11.603 11.787 11.969 12.148 12.325 12.499 12.671 12.839 13.006 13.169 13.331 13.489 13.646 13.800 13.951

@A + O + ANY_NEUTRAL => CO2 + ANY_NEUTRAL + @H_eV  ! 8.20E-34*exp(-1510.0/Tgas)
  @A = CO(V42) CO(V43) CO(V44) CO(V45) CO(V46) CO(V47) CO(V48) CO(V49) CO(V50) CO(V51) CO(V52) CO(V53) CO(V54) CO(V55) CO(V56) CO(V57) CO(V58) CO(V59) CO(V60) CO(V61) CO(V62)
  @H = 14.100 14.247 14.391 14.533 14.673 14.811 14.946 15.079 15.210 15.339 15.465 15.589 15.712 15.832 15.950 16.066 16.180 16.292 16.402 16.510 16.616

@A + O + ANY_NEUTRAL => CO2 + ANY_NEUTRAL + @H_eV  ! 8.20E-34*exp(-1510.0/Tgas)
  @A = CO(V63)
  @H = 16.721

# possible addition of all CO levels
@A + CO => CO2 + O + @H_eV          ! 1.23E-12*exp(-max(0.0,1.28e4-0.5*@E)/Tgas)
  @A = O2 O2(V1) O2(V2) O2(V3) O2(V4)
  @E = 0.00e+00 2.24e+03 4.44e+03 6.62e+03 8.75e+03
  @H = 0.350 0.543 0.733 0.920 1.104

@A + CO(V1) => CO2 + O + @H_eV          ! 1.23E-12*exp(-max(0.0,1.28e4-0.5*@E)/Tgas)
  @A = O2 O2(V1) O2(V2) O2(V3) O2(V4)
  @E = 0.00e+00 2.24e+03 4.44e+03 6.62e+03 8.75e+03
  @H = 0.616 0.809 0.999 1.186 1.370

@A + CO(V2) => CO2 + O + @H_eV          ! 1.23E-12*exp(-max(0.0,1.28e4-0.5*@E)/Tgas)
  @A = O2 O2(V1) O2(V2) O2(V3) O2(V4)
  @E = 0.00e+00 2.24e+03 4.44e+03 6.62e+03 8.75e+03
  @H = 0.878 1.071 1.261 1.448 1.633

@A + CO(V3) => CO2 + O + @H_eV          ! 1.23E-12*exp(-max(0.0,1.28e4-0.5*@E)/Tgas)
  @A = O2 O2(V1) O2(V2) O2(V3) O2(V4)
  @E = 0.00e+00 2.24e+03 4.44e+03 6.62e+03 8.75e+03
  @H = 1.137 1.330 1.520 1.708 1.892

@A + CO(V4) => CO2 + O + @H_eV          ! 1.23E-12*exp(-max(0.0,1.28e4-0.5*@E)/Tgas)
  @A = O2 O2(V1) O2(V2) O2(V3) O2(V4)
  @E = 0.00e+00 2.24e+03 4.44e+03 6.62e+03 8.75e+03
  @H = 1.393 1.586 1.776 1.963 2.148

@A + CO(V5) => CO2 + O + @H_eV          ! 1.23E-12*exp(-max(0.0,1.28e4-0.5*@E)/Tgas)
  @A = O2 O2(V1) O2(V2) O2(V3) O2(V4)
  @E = 0.00e+00 2.24e+03 4.44e+03 6.62e+03 8.75e+03
  @H = 1.646 1.839 2.029 2.216 2.400

@A + CO(V6) => CO2 + O + @H_eV          ! 1.23E-12*exp(-max(0.0,1.28e4-0.5*@E)/Tgas)
  @A = O2 O2(V1) O2(V2) O2(V3) O2(V4)
  @E = 0.00e+00 2.24e+03 4.44e+03 6.62e+03 8.75e+03
  @H = 1.895 2.088 2.278 2.466 2.650

@A + CO(V7) => CO2 + O + @H_eV          ! 1.23E-12*exp(-max(0.0,1.28e4-0.5*@E)/Tgas)
  @A = O2 O2(V1) O2(V2) O2(V3) O2(V4)
  @E = 0.00e+00 2.24e+03 4.44e+03 6.62e+03 8.75e+03
  @H = 2.142 2.335 2.525 2.712 2.896

@A + CO(V8) => CO2 + O + @H_eV          ! 1.23E-12*exp(-max(0.0,1.28e4-0.5*@E)/Tgas)
  @A = O2 O2(V1) O2(V2) O2(V3) O2(V4)
  @E = 0.00e+00 2.24e+03 4.44e+03 6.62e+03 8.75e+03
  @H = 2.385 2.578 2.768 2.955 3.139

@A + CO(V9) => CO2 + O + @H_eV          ! 1.23E-12*exp(-max(0.0,1.28e4-0.5*@E)/Tgas)
  @A = O2 O2(V1) O2(V2) O2(V3) O2(V4)
  @E = 0.00e+00 2.24e+03 4.44e+03 6.62e+03 8.75e+03
  @H = 2.625 2.818 3.008 3.195 3.379

@A + CO(V10) => CO2 + O + @H_eV          ! 1.23E-12*exp(-max(0.0,1.28e4-0.5*@E)/Tgas)
  @A = O2 O2(V1) O2(V2) O2(V3) O2(V4)
  @E = 0.00e+00 2.24e+03 4.44e+03 6.62e+03 8.75e+03
  @H = 2.862 3.055 3.245 3.432 3.616

@A + CO(V11) => CO2 + O + @H_eV          ! 1.23E-12*exp(-max(0.0,1.28e4-0.5*@E)/Tgas)
  @A = O2 O2(V1) O2(V2) O2(V3) O2(V4)
  @E = 0.00e+00 2.24e+03 4.44e+03 6.62e+03 8.75e+03
  @H = 3.095 3.288 3.478 3.665 3.850

@A + CO(V12) => CO2 + O + @H_eV          ! 1.23E-12*exp(-max(0.0,1.28e4-0.5*@E)/Tgas)
  @A = O2 O2(V1) O2(V2) O2(V3) O2(V4)
  @E = 0.00e+00 2.24e+03 4.44e+03 6.62e+03 8.75e+03
  @H = 3.326 3.519 3.709 3.896 4.080

@A + CO(V13) => CO2 + O + @H_eV          ! 1.23E-12*exp(-max(0.0,1.28e4-0.5*@E)/Tgas)
  @A = O2 O2(V1) O2(V2) O2(V3) O2(V4)
  @E = 0.00e+00 2.24e+03 4.44e+03 6.62e+03 8.75e+03
  @H = 3.554 3.747 3.937 4.124 4.308

@A + CO(V14) => CO2 + O + @H_eV          ! 1.23E-12*exp(-max(0.0,1.28e4-0.5*@E)/Tgas)
  @A = O2 O2(V1) O2(V2) O2(V3) O2(V4)
  @E = 0.00e+00 2.24e+03 4.44e+03 6.62e+03 8.75e+03
  @H = 3.778 3.971 4.161 4.348 4.533

@A + CO(V15) => CO2 + O + @H_eV          ! 1.23E-12*exp(-max(0.0,1.28e4-0.5*@E)/Tgas)
  @A = O2 O2(V1) O2(V2) O2(V3) O2(V4)
  @E = 0.00e+00 2.24e+03 4.44e+03 6.62e+03 8.75e+03
  @H = 4.000 4.193 4.383 4.570 4.754

@A + CO(V16) => CO2 + O + @H_eV          ! 1.23E-12*exp(-max(0.0,1.28e4-0.5*@E)/Tgas)
  @A = O2 O2(V1) O2(V2) O2(V3) O2(V4)
  @E = 0.00e+00 2.24e+03 4.44e+03 6.62e+03 8.75e+03
  @H = 4.218 4.411 4.601 4.789 4.973

@A + CO(V17) => CO2 + O + @H_eV          ! 1.23E-12*exp(-max(0.0,1.28e4-0.5*@E)/Tgas)
  @A = O2 O2(V1) O2(V2) O2(V3) O2(V4)
  @E = 0.00e+00 2.24e+03 4.44e+03 6.62e+03 8.75e+03
  @H = 4.434 4.627 4.817 5.004 5.188

@A + CO(V18) => CO2 + O + @H_eV          ! 1.23E-12*exp(-max(0.0,1.28e4-0.5*@E)/Tgas)
  @A = O2 O2(V1) O2(V2) O2(V3) O2(V4)
  @E = 0.00e+00 2.24e+03 4.44e+03 6.62e+03 8.75e+03
  @H = 4.647 4.840 5.030 5.217 5.401

@A + CO(V19) => CO2 + O + @H_eV          ! 1.23E-12*exp(-max(0.0,1.28e4-0.5*@E)/Tgas)
  @A = O2 O2(V1) O2(V2) O2(V3) O2(V4)
  @E = 0.00e+00 2.24e+03 4.44e+03 6.62e+03 8.75e+03
  @H = 4.857 5.049 5.240 5.427 5.611

@A + CO(V20) => CO2 + O + @H_eV          ! 1.23E-12*exp(-max(0.0,1.28e4-0.5*@E)/Tgas)
  @A = O2 O2(V1) O2(V2) O2(V3) O2(V4)
  @E = 0.00e+00 2.24e+03 4.44e+03 6.62e+03 8.75e+03
  @H = 5.063 5.256 5.446 5.634 5.818

@A + CO(V21) => CO2 + O + @H_eV          ! 1.23E-12*exp(-max(0.0,1.28e4-0.5*@E)/Tgas)
  @A = O2 O2(V1) O2(V2) O2(V3) O2(V4)
  @E = 0.00e+00 2.24e+03 4.44e+03 6.62e+03 8.75e+03
  @H = 5.267 5.460 5.650 5.838 6.022

@A + CO(V22) => CO2 + O + @H_eV          ! 1.23E-12*exp(-max(0.0,1.28e4-0.5*@E)/Tgas)
  @A = O2 O2(V1) O2(V2) O2(V3) O2(V4)
  @E = 0.00e+00 2.24e+03 4.44e+03 6.62e+03 8.75e+03
  @H = 5.469 5.662 5.852 6.039 6.223

@A + CO(V23) => CO2 + O + @H_eV          ! 1.23E-12*exp(-max(0.0,1.28e4-0.5*@E)/Tgas)
  @A = O2 O2(V1) O2(V2) O2(V3) O2(V4)
  @E = 0.00e+00 2.24e+03 4.44e+03 6.62e+03 8.75e+03
  @H = 5.667 5.860 6.050 6.237 6.421

@A + CO(V24) => CO2 + O + @H_eV          ! 1.23E-12*exp(-max(0.0,1.28e4-0.5*@E)/Tgas)
  @A = O2 O2(V1) O2(V2) O2(V3) O2(V4)
  @E = 0.00e+00 2.24e+03 4.44e+03 6.62e+03 8.75e+03
  @H = 5.863 6.056 6.246 6.433 6.617

@A + CO(V25) => CO2 + O + @H_eV          ! 1.23E-12*exp(-max(0.0,1.28e4-0.5*@E)/Tgas)
  @A = O2 O2(V1) O2(V2) O2(V3) O2(V4)
  @E = 0.00e+00 2.24e+03 4.44e+03 6.62e+03 8.75e+03
  @H = 6.055 6.248 6.438 6.626 6.810

@A + CO(V26) => CO2 + O + @H_eV          ! 1.23E-12*exp(-max(0.0,1.28e4-0.5*@E)/Tgas)
  @A = O2 O2(V1) O2(V2) O2(V3) O2(V4)
  @E = 0.00e+00 2.24e+03 4.44e+03 6.62e+03 8.75e+03
  @H = 6.245 6.438 6.628 6.816 7.000

@A + CO(V27) => CO2 + O + @H_eV          ! 1.23E-12*exp(-max(0.0,1.28e4-0.5*@E)/Tgas)
  @A = O2 O2(V1) O2(V2) O2(V3) O2(V4)
  @E = 0.00e+00 2.24e+03 4.44e+03 6.62e+03 8.75e+03
  @H = 6.433 6.626 6.816 7.003 7.187

@A + CO(V28) => CO2 + O + @H_eV          ! 1.23E-12*exp(-max(0.0,1.28e4-0.5*@E)/Tgas)
  @A = O2 O2(V1) O2(V2) O2(V3) O2(V4)
  @E = 0.00e+00 2.24e+03 4.44e+03 6.62e+03 8.75e+03
  @H = 6.617 6.810 7.000 7.187 7.372

@A + CO(V29) => CO2 + O + @H_eV          ! 1.23E-12*exp(-max(0.0,1.28e4-0.5*@E)/Tgas)
  @A = O2 O2(V1) O2(V2) O2(V3) O2(V4)
  @E = 0.00e+00 2.24e+03 4.44e+03 6.62e+03 8.75e+03
  @H = 6.799 6.992 7.182 7.369 7.554

@A + CO(V30) => CO2 + O + @H_eV          ! 1.23E-12*exp(-max(0.0,1.28e4-0.5*@E)/Tgas)
  @A = O2 O2(V1) O2(V2) O2(V3) O2(V4)
  @E = 0.00e+00 2.24e+03 4.44e+03 6.62e+03 8.75e+03
  @H = 6.978 7.171 7.361 7.549 7.733

@A + CO(V31) => CO2 + O + @H_eV          ! 1.23E-12*exp(-max(0.0,1.28e4-0.5*@E)/Tgas)
  @A = O2 O2(V1) O2(V2) O2(V3) O2(V4)
  @E = 0.00e+00 2.24e+03 4.44e+03 6.62e+03 8.75e+03
  @H = 7.155 7.348 7.538 7.725 7.910

@A + CO(V32) => CO2 + O + @H_eV          ! 1.23E-12*exp(-max(0.0,1.28e4-0.5*@E)/Tgas)
  @A = O2 O2(V1) O2(V2) O2(V3) O2(V4)
  @E = 0.00e+00 2.24e+03 4.44e+03 6.62e+03 8.75e+03
  @H = 7.329 7.522 7.712 7.899 8.084

@A + CO(V33) => CO2 + O + @H_eV          ! 1.23E-12*exp(-max(0.0,1.28e4-0.5*@E)/Tgas)
  @A = O2 O2(V1) O2(V2) O2(V3) O2(V4)
  @E = 0.00e+00 2.24e+03 4.44e+03 6.62e+03 8.75e+03
  @H = 7.501 7.693 7.884 8.071 8.255

@A + CO(V34) => CO2 + O + @H_eV          ! 1.23E-12*exp(-max(0.0,1.28e4-0.5*@E)/Tgas)
  @A = O2 O2(V1) O2(V2) O2(V3) O2(V4)
  @E = 0.00e+00 2.24e+03 4.44e+03 6.62e+03 8.75e+03
  @H = 7.669 7.862 8.052 8.240 8.424

@A + CO(V35) => CO2 + O + @H_eV          ! 1.23E-12*exp(-max(0.0,1.28e4-0.5*@E)/Tgas)
  @A = O2 O2(V1) O2(V2) O2(V3) O2(V4)
  @E = 0.00e+00 2.24e+03 4.44e+03 6.62e+03 8.75e+03
  @H = 7.836 8.029 8.219 8.406 8.590

@A + CO(V36) => CO2 + O + @H_eV          ! 1.23E-12*exp(-max(0.0,1.28e4-0.5*@E)/Tgas)
  @A = O2 O2(V1) O2(V2) O2(V3) O2(V4)
  @E = 0.00e+00 2.24e+03 4.44e+03 6.62e+03 8.75e+03
  @H = 7.999 8.192 8.382 8.570 8.754

@A + CO(V37) => CO2 + O + @H_eV          ! 1.23E-12*exp(-max(0.0,1.28e4-0.5*@E)/Tgas)
  @A = O2 O2(V1) O2(V2) O2(V3) O2(V4)
  @E = 0.00e+00 2.24e+03 4.44e+03 6.62e+03 8.75e+03
  @H = 8.161 8.354 8.544 8.731 8.915

@A + CO(V38) => CO2 + O + @H_eV          ! 1.23E-12*exp(-max(0.0,1.28e4-0.5*@E)/Tgas)
  @A = O2 O2(V1) O2(V2) O2(V3) O2(V4)
  @E = 0.00e+00 2.24e+03 4.44e+03 6.62e+03 8.75e+03
  @H = 8.319 8.512 8.702 8.890 9.074

@A + CO(V39) => CO2 + O + @H_eV          ! 1.23E-12*exp(-max(0.0,1.28e4-0.5*@E)/Tgas)
  @A = O2 O2(V1) O2(V2) O2(V3) O2(V4)
  @E = 0.00e+00 2.24e+03 4.44e+03 6.62e+03 8.75e+03
  @H = 8.476 8.669 8.859 9.046 9.230

@A + CO(V40) => CO2 + O + @H_eV          ! 1.23E-12*exp(-max(0.0,1.28e4-0.5*@E)/Tgas)
  @A = O2 O2(V1) O2(V2) O2(V3) O2(V4)
  @E = 0.00e+00 2.24e+03 4.44e+03 6.62e+03 8.75e+03
  @H = 8.630 8.823 9.013 9.200 9.384

@A + CO(V41) => CO2 + O + @H_eV          ! 1.23E-12*exp(-max(0.0,1.28e4-0.5*@E)/Tgas)
  @A = O2 O2(V1) O2(V2) O2(V3) O2(V4)
  @E = 0.00e+00 2.24e+03 4.44e+03 6.62e+03 8.75e+03
  @H = 8.781 8.974 9.164 9.351 9.536

@A + CO(V42) => CO2 + O + @H_eV          ! 1.23E-12*exp(-max(0.0,1.28e4-0.5*@E)/Tgas)
  @A = O2 O2(V1) O2(V2) O2(V3) O2(V4)
  @E = 0.00e+00 2.24e+03 4.44e+03 6.62e+03 8.75e+03
  @H = 8.930 9.123 9.313 9.500 9.685

@A + CO(V43) => CO2 + O + @H_eV          ! 1.23E-12*exp(-max(0.0,1.28e4-0.5*@E)/Tgas)
  @A = O2 O2(V1) O2(V2) O2(V3) O2(V4)
  @E = 0.00e+00 2.24e+03 4.44e+03 6.62e+03 8.75e+03
  @H = 9.077 9.270 9.460 9.647 9.831

@A + CO(V44) => CO2 + O + @H_eV          ! 1.23E-12*exp(-max(0.0,1.28e4-0.5*@E)/Tgas)
  @A = O2 O2(V1) O2(V2) O2(V3) O2(V4)
  @E = 0.00e+00 2.24e+03 4.44e+03 6.62e+03 8.75e+03
  @H = 9.221 9.414 9.604 9.792 9.976

@A + CO(V45) => CO2 + O + @H_eV          ! 1.23E-12*exp(-max(0.0,1.28e4-0.5*@E)/Tgas)
  @A = O2 O2(V1) O2(V2) O2(V3) O2(V4)
  @E = 0.00e+00 2.24e+03 4.44e+03 6.62e+03 8.75e+03
  @H = 9.363 9.556 9.746 9.934 10.118

@A + CO(V46) => CO2 + O + @H_eV          ! 1.23E-12*exp(-max(0.0,1.28e4-0.5*@E)/Tgas)
  @A = O2 O2(V1) O2(V2) O2(V3) O2(V4)
  @E = 0.00e+00 2.24e+03 4.44e+03 6.62e+03 8.75e+03
  @H = 9.503 9.696 9.886 10.073 10.258

@A + CO(V47) => CO2 + O + @H_eV          ! 1.23E-12*exp(-max(0.0,1.28e4-0.5*@E)/Tgas)
  @A = O2 O2(V1) O2(V2) O2(V3) O2(V4)
  @E = 0.00e+00 2.24e+03 4.44e+03 6.62e+03 8.75e+03
  @H = 9.641 9.834 10.024 10.211 10.395

@A + CO(V48) => CO2 + O + @H_eV          ! 1.23E-12*exp(-max(0.0,1.28e4-0.5*@E)/Tgas)
  @A = O2 O2(V1) O2(V2) O2(V3) O2(V4)
  @E = 0.00e+00 2.24e+03 4.44e+03 6.62e+03 8.75e+03
  @H = 9.776 9.969 10.159 10.346 10.530

@A + CO(V49) => CO2 + O + @H_eV          ! 1.23E-12*exp(-max(0.0,1.28e4-0.5*@E)/Tgas)
  @A = O2 O2(V1) O2(V2) O2(V3) O2(V4)
  @E = 0.00e+00 2.24e+03 4.44e+03 6.62e+03 8.75e+03
  @H = 9.909 10.102 10.292 10.479 10.663

@A + CO(V50) => CO2 + O + @H_eV          ! 1.23E-12*exp(-max(0.0,1.28e4-0.5*@E)/Tgas)
  @A = O2 O2(V1) O2(V2) O2(V3) O2(V4)
  @E = 0.00e+00 2.24e+03 4.44e+03 6.62e+03 8.75e+03
  @H = 10.040 10.233 10.423 10.610 10.794

@A + CO(V51) => CO2 + O + @H_eV          ! 1.23E-12*exp(-max(0.0,1.28e4-0.5*@E)/Tgas)
  @A = O2 O2(V1) O2(V2) O2(V3) O2(V4)
  @E = 0.00e+00 2.24e+03 4.44e+03 6.62e+03 8.75e+03
  @H = 10.169 10.361 10.552 10.739 10.923

@A + CO(V52) => CO2 + O + @H_eV          ! 1.23E-12*exp(-max(0.0,1.28e4-0.5*@E)/Tgas)
  @A = O2 O2(V1) O2(V2) O2(V3) O2(V4)
  @E = 0.00e+00 2.24e+03 4.44e+03 6.62e+03 8.75e+03
  @H = 10.295 10.488 10.678 10.865 11.049

@A + CO(V53) => CO2 + O + @H_eV          ! 1.23E-12*exp(-max(0.0,1.28e4-0.5*@E)/Tgas)
  @A = O2 O2(V1) O2(V2) O2(V3) O2(V4)
  @E = 0.00e+00 2.24e+03 4.44e+03 6.62e+03 8.75e+03
  @H = 10.419 10.612 10.802 10.990 11.174

@A + CO(V54) => CO2 + O + @H_eV          ! 1.23E-12*exp(-max(0.0,1.28e4-0.5*@E)/Tgas)
  @A = O2 O2(V1) O2(V2) O2(V3) O2(V4)
  @E = 0.00e+00 2.24e+03 4.44e+03 6.62e+03 8.75e+03
  @H = 10.542 10.735 10.925 11.112 11.296

@A + CO(V55) => CO2 + O + @H_eV          ! 1.23E-12*exp(-max(0.0,1.28e4-0.5*@E)/Tgas)
  @A = O2 O2(V1) O2(V2) O2(V3) O2(V4)
  @E = 0.00e+00 2.24e+03 4.44e+03 6.62e+03 8.75e+03
  @H = 10.662 10.855 11.045 11.232 11.416

@A + CO(V56) => CO2 + O + @H_eV          ! 1.23E-12*exp(-max(0.0,1.28e4-0.5*@E)/Tgas)
  @A = O2 O2(V1) O2(V2) O2(V3) O2(V4)
  @E = 0.00e+00 2.24e+03 4.44e+03 6.62e+03 8.75e+03
  @H = 10.780 10.973 11.163 11.350 11.534

@A + CO(V57) => CO2 + O + @H_eV          ! 1.23E-12*exp(-max(0.0,1.28e4-0.5*@E)/Tgas)
  @A = O2 O2(V1) O2(V2) O2(V3) O2(V4)
  @E = 0.00e+00 2.24e+03 4.44e+03 6.62e+03 8.75e+03
  @H = 10.896 11.089 11.279 11.466 11.650

@A + CO(V58) => CO2 + O + @H_eV          ! 1.23E-12*exp(-max(0.0,1.28e4-0.5*@E)/Tgas)
  @A = O2 O2(V1) O2(V2) O2(V3) O2(V4)
  @E = 0.00e+00 2.24e+03 4.44e+03 6.62e+03 8.75e+03
  @H = 11.010 11.203 11.393 11.580 11.764

@A + CO(V59) => CO2 + O + @H_eV          ! 1.23E-12*exp(-max(0.0,1.28e4-0.5*@E)/Tgas)
  @A = O2 O2(V1) O2(V2) O2(V3) O2(V4)
  @E = 0.00e+00 2.24e+03 4.44e+03 6.62e+03 8.75e+03
  @H = 11.122 11.315 11.505 11.692 11.876

@A + CO(V60) => CO2 + O + @H_eV          ! 1.23E-12*exp(-max(0.0,1.28e4-0.5*@E)/Tgas)
  @A = O2 O2(V1) O2(V2) O2(V3) O2(V4)
  @E = 0.00e+00 2.24e+03 4.44e+03 6.62e+03 8.75e+03
  @H = 11.232 11.425 11.615 11.802 11.986

@A + CO(V61) => CO2 + O + @H_eV          ! 1.23E-12*exp(-max(0.0,1.28e4-0.5*@E)/Tgas)
  @A = O2 O2(V1) O2(V2) O2(V3) O2(V4)
  @E = 0.00e+00 2.24e+03 4.44e+03 6.62e+03 8.75e+03
  @H = 11.340 11.533 11.723 11.910 12.095

@A + CO(V62) => CO2 + O + @H_eV          ! 1.23E-12*exp(-max(0.0,1.28e4-0.5*@E)/Tgas)
  @A = O2 O2(V1) O2(V2) O2(V3) O2(V4)
  @E = 0.00e+00 2.24e+03 4.44e+03 6.62e+03 8.75e+03
  @H = 11.446 11.639 11.829 12.016 12.201

@A + CO(V63) => CO2 + O + @H_eV          ! 1.23E-12*exp(-max(0.0,1.28e4-0.5*@E)/Tgas)
  @A = O2 O2(V1) O2(V2) O2(V3) O2(V4)
  @E = 0.00e+00 2.24e+03 4.44e+03 6.62e+03 8.75e+03
  @H = 11.551 11.744 11.934 12.121 12.305

@A + O3 => CO2 + O2 + @H_eV         ! 4.0E-25
  @A = CO CO(V1) CO(V2) CO(V3) CO(V4) CO(V5) CO(V6) CO(V7) CO(V8) CO(V9) CO(V10) CO(V11) CO(V12) CO(V13) CO(V14) CO(V15) CO(V16) CO(V17) CO(V18) CO(V19) CO(V20)
  @H = 4.410 4.676 4.938 5.197 5.453 5.706 5.955 6.202 6.445 6.685 6.922 7.155 7.386 7.614 7.838 8.060 8.278 8.494 8.707 8.917 9.123

@A + O3 => CO2 + O2 + @H_eV         ! 4.0E-25
  @A = CO(V21) CO(V22) CO(V23) CO(V24) CO(V25) CO(V26) CO(V27) CO(V28) CO(V29) CO(V30) CO(V31) CO(V32) CO(V33) CO(V34) CO(V35) CO(V36) CO(V37) CO(V38) CO(V39) CO(V40) CO(V41)
  @H = 9.327 9.529 9.727 9.923 10.115 10.305 10.493 10.677 10.859 11.038 11.215 11.389 11.561 11.729 11.896 12.059 12.221 12.379 12.536 12.690 12.841

@A + O3 => CO2 + O2 + @H_eV         ! 4.0E-25
  @A = CO(V42) CO(V43) CO(V44) CO(V45) CO(V46) CO(V47) CO(V48) CO(V49) CO(V50) CO(V51) CO(V52) CO(V53) CO(V54) CO(V55) CO(V56) CO(V57) CO(V58) CO(V59) CO(V60) CO(V61) CO(V62)
  @H = 12.990 13.137 13.281 13.423 13.563 13.701 13.836 13.969 14.100 14.229 14.355 14.479 14.602 14.722 14.840 14.956 15.070 15.182 15.292 15.400 15.506

@A + O3 => CO2 + O2 + @H_eV         ! 4.0E-25
  @A = CO(V63)
  @H = 15.611
